test/test_data/ACTIVSg2000_solved.m
function mpc = ACTIVSg2000_sanitized_results
%ACTIVSG2000_SANITIZED_RESULTS

%% MATPOWER Case Format : Version 2
mpc.version = '2';

%%-----  Power Flow Data  -----%%
%% system MVA base
mpc.baseMVA = 100;

%% bus data
%	bus_i	type	Pd	Qd	Gs	Bs	area	Vm	Va	baseKV	zone	Vmax	Vmin
mpc.bus = [
	1001	1	20.78	5.89	0	0	1	0.977911803	-22.7962251	115	9	1.1	0.9;
	1002	1	15.41	4.37	0	0	1	0.998098686	-18.0677176	115	9	1.1	0.9;
	1003	1	0	0	0	0	1	1.00822802	-17.3309355	115	9	1.1	0.9;
	1004	2	0	0	0	0	1	1.01	-19.202164	230	9	1.1	0.9;
	1005	1	0	0	0	0	1	1.00699483	-16.338778	115	9	1.1	0.9;
	1006	2	0	0	0	0	1	1	-14.1669687	13.8	9	1.1	0.9;
	1007	1	7.01	1.99	0	-0.82	1	1.00860206	-18.472503	115	9	1.1	0.9;
	1008	1	0	0	0	0	1	1.00966382	-8.39241096	115	9	1.1	0.9;
	1009	2	0	0	0	0	1	1	-5.0359622	13.8	9	1.1	0.9;
	1010	1	0	0	0	-3.07	1	1.00471986	-16.719522	115	9	1.1	0.9;
	1011	2	0	0	0	0	1	1	-14.8674444	22	9	1.1	0.9;
	1012	1	2.99	0.85	0	9.5	1	0.99603377	-25.3706979	115	9	1.1	0.9;
	1013	1	29.23	8.28	0	0	1	1.00238302	-15.460993	115	9	1.1	0.9;
	1014	1	2.22	0.63	0	0	1	1.00581018	-11.8402754	115	9	1.1	0.9;
	1015	1	7.51	2.13	0	0	1	1.00802128	-18.1943358	115	9	1.1	0.9;
	1016	1	2.89	0.82	0	30	1	1.01776435	-15.6469282	115	9	1.1	0.9;
	1017	1	18.34	5.2	0	0	1	0.98022873	-21.499816	115	9	1.1	0.9;
	1018	1	0.07	0.02	0	0	1	0.990263465	-20.2928623	115	9	1.1	0.9;
	1019	1	61.78	17.5	0	142.98	1	0.99923396	-22.4000004	115	9	1.1	0.9;
	1020	1	0	0	0	67.23	1	1.0271778	-15.6221647	115	9	1.1	0.9;
	1021	2	0	0	0	0	1	1	-9.02844813	13.8	9	1.1	0.9;
	1022	1	0	0	0	0	1	1.01171551	-16.4517654	115	9	1.1	0.9;
	1023	2	0	0	0	0	1	1.01	-7.54304646	13.8	9	1.1	0.9;
	1024	1	63.04	17.86	0	0	1	0.994054606	-19.2745766	115	9	1.1	0.9;
	1025	1	0	0	0	0	1	1.02112288	-14.5269841	115	9	1.1	0.9;
	1026	2	0	0	0	0	1	1	-5.03710863	13.8	9	1.1	0.9;
	1027	1	101.21	28.68	0	75	1	1.00511121	-25.9737784	115	9	1.1	0.9;
	1028	1	10.01	2.84	0	0	1	1.01518059	-17.9695276	115	9	1.1	0.9;
	1029	1	83.18	23.57	0	40	1	1.00172627	-24.9986187	115	9	1.1	0.9;
	1030	1	24.63	6.98	0	0	1	0.998876392	-13.2737251	115	9	1.1	0.9;
	1031	1	9.25	2.62	0	0	1	1.0047937	-17.6922223	115	9	1.1	0.9;
	1032	1	0	0	0	0	1	0.988532374	-12.1052107	115	9	1.1	0.9;
	1033	2	0	0	0	50	1	1	-16.8131645	230	9	1.1	0.9;
	1034	1	0	0	0	0	1	1.00500078	-14.523445	115	9	1.1	0.9;
	1035	2	0	0	0	0	1	1	-11.2336695	13.8	9	1.1	0.9;
	1036	1	13.6	3.85	0	0	1	0.991529751	-12.4604108	115	9	1.1	0.9;
	1037	1	102.24	28.97	0	0	1	0.972930837	-22.6125198	115	9	1.1	0.9;
	1038	1	0	0	0	0	1	1.00452997	-7.37959784	115	9	1.1	0.9;
	1039	2	0	0	0	0	1	1	-1.9475093	22	9	1.1	0.9;
	1040	1	44.36	12.57	0	0	1	0.993906949	-20.5559251	115	9	1.1	0.9;
	1041	1	0	0	0	0	1	1.00236563	-15.324691	115	9	1.1	0.9;
	1042	1	0	0	0	0	1	1.00236563	-15.324691	13.8	9	1.1	0.9;
	1043	2	0	0	0	0	1	1	-12.0824877	13.8	9	1.1	0.9;
	1044	1	14.68	4.16	0	0	1	1.01189815	-26.2087941	115	9	1.1	0.9;
	1045	1	98.56	27.93	0	0	1	0.976725253	-24.5307342	115	9	1.1	0.9;
	1046	1	11.08	3.14	0	12	1	1.01073908	-22.5249908	115	9	1.1	0.9;
	1047	1	0	0	0	0	1	1.00271927	-13.3680058	115	9	1.1	0.9;
	1048	1	0	0	0	0	1	1.00271927	-13.3680058	18	9	1.1	0.9;
	1049	1	0	0	0	0	1	1.00271927	-13.3680058	18	9	1.1	0.9;
	1050	2	0	0	0	0	1	1	-8.29452204	18	9	1.1	0.9;
	1051	2	0	0	0	0	1	1	-6.8151468	18	9	1.1	0.9;
	1052	2	0	0	0	0	1	1	-9.1481386	18	9	1.1	0.9;
	1053	1	0	0	0	0	1	1.01036757	-17.3793397	230	9	1.1	0.9;
	1054	1	14.99	4.25	0	0	1	1.00354944	-22.4898953	115	9	1.1	0.9;
	1055	1	3.98	1.13	0	0	1	1.0004648	-18.3704173	115	9	1.1	0.9;
	1056	1	0	0	0	59.97	1	1.02004746	-22.0025112	115	9	1.1	0.9;
	1057	1	0	0	0	0	1	1.02004746	-22.0025112	18	9	1.1	0.9;
	1058	1	13.46	3.81	0	0	1	1.01038386	-11.0547018	115	9	1.1	0.9;
	1059	1	0	0	0	0	1	1.01038386	-11.0547018	22	9	1.1	0.9;
	1060	1	0	0	0	0	1	1.01038386	-11.0547018	22	9	1.1	0.9;
	1061	1	0	0	0	0	1	1.00758911	-17.4742444	115	9	1.1	0.9;
	1062	1	0	0	0	0	1	1.00758911	-17.4742444	13.8	9	1.1	0.9;
	1063	1	0	0	0	0	1	1.00758911	-17.4742444	13.8	9	1.1	0.9;
	1064	1	123.76	35.07	0	0	1	0.970762248	-24.2242429	115	9	1.1	0.9;
	1065	1	0	0	0	0	1	1.00471204	-15.1447094	115	9	1.1	0.9;
	1066	2	0	0	0	0	1	1	-7.61351512	13.8	9	1.1	0.9;
	1067	1	101.55	28.77	0	0	1	0.999373738	-15.9043904	115	9	1.1	0.9;
	1068	1	59.4	16.83	0	0	1	0.986958206	-16.5375457	115	9	1.1	0.9;
	1069	1	0	0	0	0	1	1.01356202	-8.52623865	115	9	1.1	0.9;
	1070	2	0	0	0	0	1	1.04	-4.00400498	13.8	9	1.1	0.9;
	1071	1	91.46	25.91	0	0	1	0.985314388	-21.5269104	115	9	1.1	0.9;
	1072	2	0	0	0	0	1	1.01	-12.152916	18	9	1.1	0.9;
	1073	2	0	0	0	0	1	1.01	-5.71070494	18	9	1.1	0.9;
	1074	2	0	0	0	0	1	1.01	-7.77161526	18	9	1.1	0.9;
	1075	2	0	0	0	0	1	1.01	-10.5431578	18	9	1.1	0.9;
	1076	1	0	0	0	0	1	0.985314388	-21.5269104	18	9	1.1	0.9;
	1077	1	0	0	0	0	1	0.985314388	-21.5269104	18	9	1.1	0.9;
	1078	2	0	0	0	0	1	1.01	-11.0623973	18	9	1.1	0.9;
	1079	2	0	0	0	0	1	1.01	-38.6861059	500	9	1.1	0.9;
	1080	2	0	0	0	0	1	1.01	-10.4886347	18	9	1.1	0.9;
	1081	1	0	0	0	56.9	1	1.01142966	-18.7447084	230	9	1.1	0.9;
	1082	2	0	0	0	0	1	1	-5.49413389	115	9	1.1	0.9;
	1083	1	39.95	11.32	0	26.15	1	1.00752344	-9.68731058	115	9	1.1	0.9;
	1084	2	0	0	0	0	1	1.04	-16.9227312	115	9	1.1	0.9;
	1085	1	21.3	6.03	0	0	1	1.00701681	-15.3833608	115	9	1.1	0.9;
	1086	1	39.67	11.24	0	30	1	1.01270764	-17.6305394	115	9	1.1	0.9;
	1087	1	0.91	0.26	0	8.66	1	1.0112005	-16.0370269	115	9	1.1	0.9;
	1088	2	0	0	0	0	1	1	-11.9142799	115	9	1.1	0.9;
	1089	1	40.6	11.5	0	0	1	0.979985891	-21.5346005	115	9	1.1	0.9;
	1090	2	0	0	0	0	1	1.02	-16.2183614	115	9	1.1	0.9;
	1091	1	11.62	3.29	0	0	1	1.02422392	-31.1626009	161	9	1.1	0.9;
	2001	1	48.36	13.7	0	0	2	1.00177435	-59.8235885	161	11	1.1	0.9;
	2002	1	0	0	0	0	2	1.01409744	-61.4174687	500	11	1.1	0.9;
	2003	1	0	0	0	0	2	1.01263756	-63.663851	161	11	1.1	0.9;
	2004	1	0	0	0	0	2	1.01409744	-61.4174687	13.8	11	1.1	0.9;
	2005	1	0	0	0	0	2	1.01409744	-61.4174687	13.8	11	1.1	0.9;
	2006	1	0	0	0	0	2	1.01409744	-61.4174687	13.8	11	1.1	0.9;
	2007	1	9.54	2.7	0	0	2	1.0027093	-59.5925587	161	11	1.1	0.9;
	2008	1	8.06	2.28	0	0	2	1.00420306	-32.8801901	161	10	1.1	0.9;
	2009	1	39.14	11.09	0	113.65	2	1.0217087	-45.2127511	161	11	1.1	0.9;
	2010	1	56.81	16.09	0	22.39	2	1.02298001	-36.5174271	161	10	1.1	0.9;
	2011	1	0	0	0	0	2	1.02784106	-32.0834667	500	10	1.1	0.9;
	2012	1	0	0	0	0	2	1.01031052	-29.7807324	161	10	1.1	0.9;
	2013	2	0	0	0	0	2	1	-29.6303111	18	10	1.1	0.9;
	2014	1	25.43	7.2	0	0	2	1.00565228	-33.4975348	161	10	1.1	0.9;
	2015	1	4.69	1.33	0	0	2	1.00867842	-63.1438374	161	11	1.1	0.9;
	2016	1	69.27	19.63	0	0	2	1.01065708	-69.7449538	161	11	1.1	0.9;
	2017	1	0	0	0	-200	2	1.02750947	-32.3169464	500	10	1.1	0.9;
	2018	1	0	0	0	0	2	1.02012685	-31.5253298	161	10	1.1	0.9;
	2019	1	0	0	0	0	2	1.02750947	-32.3169464	20	10	1.1	0.9;
	2020	1	47.97	13.59	0	0	2	0.996865662	-44.8751634	161	11	1.1	0.9;
	2021	1	0	0	0	0	2	1.01340904	-56.5468044	500	11	1.1	0.9;
	2022	1	11.56	3.28	0	0	2	1.00990772	-58.4792289	161	11	1.1	0.9;
	2023	2	0	0	0	0	2	1.02	-54.9836051	13.8	11	1.1	0.9;
	2024	2	0	0	0	0	2	1.02	-54.3179394	13.8	11	1.1	0.9;
	2025	1	39.62	11.23	0	0	2	0.995671989	-44.1164922	161	11	1.1	0.9;
	2026	1	18.57	5.26	0	0	2	1.01422703	-31.0535303	161	10	1.1	0.9;
	2027	1	3.55	1.01	0	0	2	1.00235603	-60.2539802	161	11	1.1	0.9;
	2028	1	14.24	4.03	0	0	2	0.99640214	-47.2264592	161	11	1.1	0.9;
	2029	1	3.2	0.91	0	0	2	1.01379707	-32.8855948	161	10	1.1	0.9;
	2030	1	47.15	13.36	0	0	2	0.990299602	-63.8709568	161	11	1.1	0.9;
	2031	1	5.77	1.63	0	0	2	1.02534906	-29.8695387	161	10	1.1	0.9;
	2032	1	3.35	0.95	0	0	2	1.00453546	-58.9886779	161	11	1.1	0.9;
	2033	1	13.57	3.85	0	0	2	0.99373199	-65.3777692	161	11	1.1	0.9;
	2034	1	5.34	1.51	0	0	2	1.008916	-69.0789682	161	11	1.1	0.9;
	2035	1	4.68	1.33	0	0	2	1.02199553	-30.8018645	161	10	1.1	0.9;
	2036	1	41.59	11.78	0	0	2	1.00063532	-44.4775254	161	11	1.1	0.9;
	2037	1	3.5	0.99	0	0	2	1.01941216	-63.4722435	161	11	1.1	0.9;
	2038	1	2.6	0.74	0	0	2	1.00965248	-64.1339317	161	11	1.1	0.9;
	2039	1	5.56	1.58	0	0	2	0.993466449	-60.5431168	161	11	1.1	0.9;
	2040	1	15.9	4.51	0	0	2	1.00731926	-59.1493165	161	11	1.1	0.9;
	2041	1	0	0	0	0	2	1.01099334	-27.510192	161	10	1.1	0.9;
	2042	2	0	0	0	0	2	1.01	-24.8790844	18	10	1.1	0.9;
	2043	1	4.24	1.2	0	0	2	1.00948585	-69.3830226	161	11	1.1	0.9;
	2044	1	27.4	7.76	0	0	2	1.01679857	-65.2143871	161	11	1.1	0.9;
	2045	1	22.61	6.4	0	0	2	0.996167207	-45.4109468	161	11	1.1	0.9;
	2046	1	22.13	6.27	0	0	2	1.00869562	-68.6956423	161	11	1.1	0.9;
	2047	1	14.96	4.24	0	0	2	1.01132569	-64.5591831	161	11	1.1	0.9;
	2048	1	6.42	1.82	0	0	2	1.02593907	-31.8818941	161	10	1.1	0.9;
	2049	1	11.57	3.28	0	0	2	1.01910603	-40.9745002	161	10	1.1	0.9;
	2050	1	3.66	1.04	0	0	2	0.99543505	-63.0702799	161	11	1.1	0.9;
	2051	1	17.85	5.06	0	0	2	0.991602339	-54.0640403	161	11	1.1	0.9;
	2052	1	24.84	7.04	0	0	2	1.00303917	-31.9641781	161	10	1.1	0.9;
	2053	1	29.13	8.25	0	0	2	0.99297979	-59.236892	161	11	1.1	0.9;
	2054	1	0	0	0	0	2	0.99941822	-43.1288459	500	11	1.1	0.9;
	2055	1	49.62	14.06	0	0	2	0.998984114	-43.9549321	161	11	1.1	0.9;
	2056	1	0	0	0	0	2	0.99941822	-43.1288459	18	11	1.1	0.9;
	2057	2	0	0	0	0	2	0.99	-38.7283034	18	11	1.1	0.9;
	2058	1	0	0	0	0	2	1.00546551	-26.974442	161	10	1.1	0.9;
	2059	2	0	0	0	0	2	1	-23.5034338	13.8	10	1.1	0.9;
	2060	1	3.8	1.08	0	0	2	0.998410849	-61.7890822	161	11	1.1	0.9;
	2061	1	0	0	0	0	2	1.02220077	-37.4773419	161	10	1.1	0.9;
	2062	2	0	0	0	0	2	1.02	-35.1805869	18	10	1.1	0.9;
	2063	1	65.62	18.59	0	40	2	1.01002963	-68.0626538	161	11	1.1	0.9;
	2064	1	10.05	2.85	0	0	2	1.00352462	-60.1183602	161	11	1.1	0.9;
	2065	1	78.36	22.2	0	94.98	2	1.02340003	-65.4326425	161	11	1.1	0.9;
	2066	1	7.11	2.02	0	0	2	1.02253257	-27.9366115	161	10	1.1	0.9;
	2067	1	53.97	15.29	0	0	2	0.993876298	-44.0386808	161	11	1.1	0.9;
	2068	1	5.76	1.63	0	0	2	1.00016277	-42.0055693	161	11	1.1	0.9;
	2069	1	21.92	6.21	0	110.69	2	1.02485711	-68.9147464	161	11	1.1	0.9;
	2070	1	0	0	0	0	2	1.00223779	-41.5869738	161	11	1.1	0.9;
	2071	2	0	0	0	0	2	1	-37.9113171	18	11	1.1	0.9;
	2072	1	9.71	2.75	0	0	2	1.01948259	-67.054106	161	11	1.1	0.9;
	2073	1	0	0	0	0	2	1.02450841	-25.4769261	161	10	1.1	0.9;
	2074	1	0	0	0	0	2	1.01252304	-23.6272299	115	10	1.1	0.9;
	2075	1	0	0	0	0	2	1.01252304	-23.6272299	115	10	1.1	0.9;
	2076	2	0	0	0	0	2	1.04	-24.6218994	24	10	1.1	0.9;
	2077	1	0	0	0	0	2	1.01986301	-61.0550031	161	11	1.1	0.9;
	2078	2	0	0	0	0	2	1.02	-57.7355952	13.8	11	1.1	0.9;
	2079	1	4.48	1.27	0	0	2	1.0250013	-34.7634548	161	10	1.1	0.9;
	2080	1	16.93	4.8	0	0	2	0.996719169	-57.3945431	161	11	1.1	0.9;
	2081	1	4.46	1.26	0	0	2	1.00429434	-64.9357164	161	11	1.1	0.9;
	2082	1	59.03	16.73	0	0	2	1.00460772	-44.8216231	161	11	1.1	0.9;
	2083	2	0	0	0	0	2	1.02	-43.2500126	20	11	1.1	0.9;
	2084	1	0	0	0	0	2	1.00460772	-44.8216231	20	11	1.1	0.9;
	2085	1	0	0	0	0	2	1.00460772	-44.8216231	20	11	1.1	0.9;
	2086	1	2.19	0.62	0	0	2	0.994620085	-59.3554724	161	11	1.1	0.9;
	2087	1	7.9	2.24	0	0	2	1.02448461	-27.7689084	161	10	1.1	0.9;
	2088	1	0	0	0	0	2	1.00119024	-41.7054183	161	11	1.1	0.9;
	2089	2	0	0	0	0	2	1	-38.1052105	24	11	1.1	0.9;
	2090	1	2.42	0.69	0	0	2	1.00293333	-60.8732961	161	11	1.1	0.9;
	2091	1	17.05	4.83	0	0	2	1.02123248	-34.1485705	161	10	1.1	0.9;
	2092	1	24.11	6.83	0	0	2	1.00911741	-66.3852241	161	11	1.1	0.9;
	2093	1	0	0	0	0	2	1.01535206	-30.6110693	161	10	1.1	0.9;
	2094	1	0	0	0	0	2	1.01535206	-30.6110693	13.8	10	1.1	0.9;
	2095	1	0	0	0	0	2	1.01535206	-30.6110693	13.8	10	1.1	0.9;
	2096	1	0	0	0	-122.33	2	1.01983306	-27.970122	500	10	1.1	0.9;
	2097	1	0	0	0	0	2	1.01919522	-27.4230825	230	10	1.1	0.9;
	2098	1	0	0	0	0	2	1.02512543	-30.5713442	161	10	1.1	0.9;
	2099	2	0	0	0	0	2	1.02	-27.8265589	18	10	1.1	0.9;
	2100	2	0	0	0	0	2	1.02	-25.3453972	18	10	1.1	0.9;
	2101	1	0	0	0	0	2	1.01462243	-62.5223401	500	11	1.1	0.9;
	2102	1	0	0	0	0	2	1.01478062	-63.9583301	161	11	1.1	0.9;
	2103	1	0	0	0	0	2	1.01462243	-62.5223401	20	11	1.1	0.9;
	2104	1	0	0	0	0	2	1.01462243	-62.5223401	20	11	1.1	0.9;
	2105	1	0	0	0	0	2	1.01462243	-62.5223401	20	11	1.1	0.9;
	2106	1	14.4	4.08	0	0	2	0.992458304	-66.0197747	161	11	1.1	0.9;
	2107	1	74.15	21.01	0	0	2	1.0094567	-64.8226576	161	11	1.1	0.9;
	2108	1	2.14	0.61	0	0	2	1.00311319	-43.7691057	161	10	1.1	0.9;
	2109	1	33.81	9.58	0	0	2	1.00837253	-46.3453078	161	11	1.1	0.9;
...
];

%% generator data
%	bus	Pg	Qg	Qmax	Qmin	Vg	mBase	status	Pmax	Pmin	Pc1	Pc2	Qc1min	Qc1max	Qc2min	Qc2max	ramp_agc	ramp_10	ramp_30	ramp_q	apf
mpc.gen = [
	1004	158.25	-45.7831702	44.94	-30.38	1.01	253.2	1	158.25	158.25	0	0	0	0	0	0	0	0	0	0	211;
	1006	25.73	-5.31749212	7.31	-4.94	1	41.16	1	25.73	25.73	0	0	0	0	0	0	0	0	0	0	34.3;
	1009	61.87	-11.3472109	17.57	-11.88	1	99	1	61.87	61.87	0	0	0	0	0	0	0	0	0	0	82.5;
	1011	9.97	-1.51381166	0	0	1	12	1	10	3	0	0	0	0	0	0	0	0	0	0	10;
	1021	149.63	-32.3557309	42.49	-28.73	1	239.4	1	149.63	149.63	0	0	0	0	0	0	0	0	0	0	199.5;
	1023	135	2.87386871	38.34	-25.92	1.01	216	1	135	135	0	0	0	0	0	0	0	0	0	0	180;
	1026	93.15	-6.12925847	26.45	-17.88	1	149.04	1	93.15	93.15	0	0	0	0	0	0	0	0	0	0	124.2;
	1033	208.5	-75.9549781	59.21	-40.03	1	333.6	1	208.5	208.5	0	0	0	0	0	0	0	0	0	0	278;
	1035	67.5	-7.41655879	19.17	-12.96	1	108	1	67.5	67.5	0	0	0	0	0	0	0	0	0	0	90;
	1039	110.63	-2.61016609	31.42	-21.24	1	177	1	110.63	110.63	0	0	0	0	0	0	0	0	0	0	147.5;
	1042	0	0	25.96	-17.55	1	146.28	0	121.9	36.57	0	0	0	0	0	0	0	0	0	0	121.9;
	1043	44.1	-1.62271654	12.52	-8.47	1	70.56	1	44.1	44.1	0	0	0	0	0	0	0	0	0	0	58.8;
	1048	0	0	165.53	-36.1	1	390.24	0	325.2	97.56	0	0	0	0	0	0	0	0	0	0	325.2;
	1049	0	0	165.53	-36.1	1	390.24	0	325.2	97.56	0	0	0	0	0	0	0	0	0	0	325.2;
	1050	89.15	-1.59049209	45.5	-9.92	1	107.28	1	89.4	26.82	0	0	0	0	0	0	0	0	0	0	89.4;
	1051	89.15	-0.904831724	45.5	-9.92	1	107.28	1	89.4	26.82	0	0	0	0	0	0	0	0	0	0	89.4;
	1052	89.15	-3.97292804	45.5	-9.92	1	107.28	1	89.4	26.82	0	0	0	0	0	0	0	0	0	0	89.4;
	1053	0	0	91.01	-19.85	1	214.56	0	178.8	53.64	0	0	0	0	0	0	0	0	0	0	178.8;
	1057	0	0	25.56	-17.28	1	144	0	120	36	0	0	0	0	0	0	0	0	0	0	120;
	1059	0	0	2.85	-0.62	1.04	6.72	0	5.6	1.68	0	0	0	0	0	0	0	0	0	0	5.6;
	1060	0	0	1.02	-0.22	1.04	2.4	0	2	0.6	0	0	0	0	0	0	0	0	0	0	2;
	1062	0	0	0	0	1.01	1.8	0	1.5	0.45	0	0	0	0	0	0	0	0	0	0	1.5;
	1063	0	0	0	0	1.01	276	0	230	69	0	0	0	0	0	0	0	0	0	0	230;
	1066	106.88	-1.19736029	30.35	-20.52	1	171	1	106.88	106.88	0	0	0	0	0	0	0	0	0	0	142.5;
	1070	120.38	38.8597641	34.19	-23.11	1.04	192.6	1	120.38	120.38	0	0	0	0	0	0	0	0	0	0	160.5;
	1072	191.59	32.8460232	97.8	-21.33	1.01	230.56	1	192.13	57.64	0	0	0	0	0	0	0	0	0	0	192.13;
	1073	191.59	37.216382	97.8	-21.33	1.01	230.56	1	192.13	57.64	0	0	0	0	0	0	0	0	0	0	192.13;
	1074	191.59	34.0940731	97.8	-21.33	1.01	230.56	1	192.13	57.64	0	0	0	0	0	0	0	0	0	0	192.13;
	1075	191.59	36.1356321	97.8	-21.33	1.01	230.56	1	192.13	57.64	0	0	0	0	0	0	0	0	0	0	192.13;
	1076	0	0	97.8	-21.33	1.01	230.56	0	192.13	57.64	0	0	0	0	0	0	0	0	0	0	192.13;
	1077	0	0	97.8	-21.33	1.01	230.56	0	192.13	57.64	0	0	0	0	0	0	0	0	0	0	192.13;
	1078	95.23	19.0751531	48.61	-10.6	1.01	114.6	1	95.5	28.65	0	0	0	0	0	0	0	0	0	0	95.5;
	1079	95.23	-398.003952	48.61	-10.6	1.01	114.6	1	95.5	28.65	0	0	0	0	0	0	0	0	0	0	95.5;
	1080	95.23	15.7654544	48.61	-10.6	1.01	114.6	1	95.5	28.65	0	0	0	0	0	0	0	0	0	0	95.5;
	1081	0	0	145.83	-31.8	1.01	343.8	0	286.5	85.95	0	0	0	0	0	0	0	0	0	0	286.5;
	1082	112.5	-47.0880756	31.95	-21.6	1	180	1	112.5	112.5	0	0	0	0	0	0	0	0	0	0	150;
	1084	86.62	60.928118	24.6	-16.63	1.04	138.6	1	86.62	86.62	0	0	0	0	0	0	0	0	0	0	115.5;
	1088	56.25	4.82144379	15.97	-10.8	1	90	1	56.25	56.25	0	0	0	0	0	0	0	0	0	0	75;
	1090	114.37	33.1267361	32.48	-21.96	1.02	183	1	114.37	114.37	0	0	0	0	0	0	0	0	0	0	152.5;
	1090	27	7.82265538	7.67	-5.18	1.02	43.2	1	27	27	0	0	0	0	0	0	0	0	0	0	36;
	2004	0	0	199.43	-43.49	1.02	470.16	0	391.8	117.54	0	0	0	0	0	0	0	0	0	0	391.8;
	2005	0	0	199.43	-43.49	1.02	470.16	0	391.8	117.54	0	0	0	0	0	0	0	0	0	0	391.8;
	2006	0	0	199.43	-43.49	1.02	470.16	0	391.8	117.54	0	0	0	0	0	0	0	0	0	0	391.8;
	2013	150.45	-95.084661	42.73	-28.89	1	240.72	1	150.45	150.45	0	0	0	0	0	0	0	0	0	0	200.6;
	2019	0	0	46.43	-31.39	1.04	261.6	0	218	65.4	0	0	0	0	0	0	0	0	0	0	218;
	2023	83.1	19.5500042	42.42	-9.25	1.02	100	1	83.33	25	0	0	0	0	0	0	0	0	0	0	83.33;
	2024	166.2	28.480368	84.83	-18.5	1.02	200	1	166.67	50	0	0	0	0	0	0	0	0	0	0	166.67;
	2042	59.7	-1.55026209	16.95	-11.46	1.01	95.52	1	59.7	59.7	0	0	0	0	0	0	0	0	0	0	79.6;
	2056	0	0	2.8	-0.73	0.99	7.2	0	6	1.8	0	0	0	0	0	0	0	0	0	0	6;
	2057	573.57	-59.3578038	335.52	-87.84	0.99	864	1	720	216	0	0	0	0	0	0	0	0	0	0	720;
	2059	60	-6.78536469	17.04	-11.52	1	96	1	60	60	0	0	0	0	0	0	0	0	0	0	80;
	2062	101.55	-7.38968951	28.84	-19.5	1.02	162.48	1	101.55	101.55	0	0	0	0	0	0	0	0	0	0	135.4;
	2071	112.5	-2.8510613	31.95	-21.6	1	180	1	112.5	112.5	0	0	0	0	0	0	0	0	0	0	150;
	2076	22.5	20.908305	6.39	-4.32	1.04	36	1	22.5	22.5	0	0	0	0	0	0	0	0	0	0	30;
	2078	84.38	0.276524193	23.96	-16.2	1.02	135	1	84.38	84.38	0	0	0	0	0	0	0	0	0	0	112.5;
	2083	19.94	10.6827827	10.18	-2.22	1.02	24	1	20	6	0	0	0	0	0	0	0	0	0	0	20;
	2084	0	0	10.18	-2.22	1.02	24	0	20	6	0	0	0	0	0	0	0	0	0	0	20;
	2085	0	0	20.36	-4.44	1.02	48	0	40	12	0	0	0	0	0	0	0	0	0	0	40;
	2089	50.7	-0.425491859	14.4	-9.73	1	81.12	1	50.7	50.7	0	0	0	0	0	0	0	0	0	0	67.6;
	2094	0	0	2.13	-1.44	1	12	0	10	3	0	0	0	0	0	0	0	0	0	0	10;
	2095	0	0	16.93	-11.45	1	95.4	0	79.5	23.85	0	0	0	0	0	0	0	0	0	0	79.5;
	2099	7.5	0.434404576	2.13	-1.44	1.02	12	1	7.5	7.5	0	0	0	0	0	0	0	0	0	0	10;
	2100	112.5	0.986613038	31.95	-21.6	1.02	180	1	112.5	112.5	0	0	0	0	0	0	0	0	0	0	150;
	2103	0	0	136.28	-29.72	1	321.28	0	267.73	80.32	0	0	0	0	0	0	0	0	0	0	267.73;
	2104	0	0	136.28	-29.72	1	321.28	0	267.73	80.32	0	0	0	0	0	0	0	0	0	0	267.73;
	2105	0	0	136.28	-29.72	1	321.28	0	267.73	80.32	0	0	0	0	0	0	0	0	0	0	267.73;
	2115	184.2	-30.7258271	94.02	-20.5	1	221.66	1	184.72	55.41	0	0	0	0	0	0	0	0	0	0	184.72;
	2116	184.2	-63.4134911	94.02	-20.5	1	221.66	1	184.72	55.41	0	0	0	0	0	0	0	0	0	0	184.72;
	2117	184.2	-23.2462811	94.02	-20.5	1	221.66	1	184.72	55.41	0	0	0	0	0	0	0	0	0	0	184.72;
	2118	184.2	-20.2400834	94.02	-20.5	1	221.66	1	184.72	55.41	0	0	0	0	0	0	0	0	0	0	184.72;
	2119	184.2	-51.293405	94.02	-20.5	1	221.66	1	184.72	55.41	0	0	0	0	0	0	0	0	0	0	184.72;
	2120	184.2	-1.00108014	94.02	-20.5	1.01	221.66	1	184.72	55.41	0	0	0	0	0	0	0	0	0	0	184.72;
	2123	136.28	-77.9285252	38.7	-26.16	1	218.04	1	136.28	136.28	0	0	0	0	0	0	0	0	0	0	181.7;
	2127	216.45	98.302549	61.47	-41.56	1.04	346.32	1	216.45	216.45	0	0	0	0	0	0	0	0	0	0	288.6;
	3004	28.13	-0.940691224	7.99	-5.4	1	45	1	28.13	28.13	0	0	0	0	0	0	0	0	0	0	37.5;
	3017	127.13	3.68520036	36.1	-24.41	1.01	203.4	1	127.13	127.13	0	0	0	0	0	0	0	0	0	0	169.5;
	3020	112.5	13.534775	31.95	-21.6	1.03	180	1	112.5	112.5	0	0	0	0	0	0	0	0	0	0	150;
	3028	150	27.1353733	42.6	-28.8	1.04	240	1	150	150	0	0	0	0	0	0	0	0	0	0	200;
	3034	97.87	17.9725623	27.8	-18.79	1.03	156.6	1	97.87	97.87	0	0	0	0	0	0	0	0	0	0	130.5;
	3039	156.75	41.9917852	44.52	-30.1	1.04	250.8	1	156.75	156.75	0	0	0	0	0	0	0	0	0	0	209;
	3043	0	0	0.66	-0.14	1.04	1.56	0	1.3	0.39	0	0	0	0	0	0	0	0	0	0	1.3;
	3044	0	0	45.5	-9.92	1.04	107.28	0	89.4	26.82	0	0	0	0	0	0	0	0	0	0	89.4;
	3045	0	0	227.52	-49.62	1.04	536.4	0	447	134.1	0	0	0	0	0	0	0	0	0	0	447;
	3048	180.75	878.735104	51.33	-34.7	1.04	289.2	1	180.75	180.75	0	0	0	0	0	0	0	0	0	0	241;
	3055	183.88	35.2556227	52.22	-35.3	1.04	294.2	1	183.88	183.88	0	0	0	0	0	0	0	0	0	0	245.17;
	3056	183.88	23.8555599	52.22	-35.3	1.04	294.2	1	183.88	183.88	0	0	0	0	0	0	0	0	0	0	245.17;
	3057	183.88	22.2276326	52.22	-35.3	1.04	294.2	1	183.88	183.88	0	0	0	0	0	0	0	0	0	0	245.17;
	3060	124.22	13.8467777	35.28	-23.85	1.04	198.75	1	124.22	124.22	0	0	0	0	0	0	0	0	0	0	165.63;
	3061	124.22	14.8635652	35.28	-23.85	1.04	198.75	1	124.22	124.22	0	0	0	0	0	0	0	0	0	0	165.63;
	3062	124.22	21.293154	35.28	-23.85	1.04	198.75	1	124.22	124.22	0	0	0	0	0	0	0	0	0	0	165.63;
	3063	124.22	16.1580758	35.28	-23.85	1.04	198.75	1	124.22	124.22	0	0	0	0	0	0	0	0	0	0	165.63;
	3065	60.37	-2.91023601	17.15	-11.59	1	96.6	1	60.37	60.37	0	0	0	0	0	0	0	0	0	0	80.5;
	3068	112.5	36.8739577	31.95	-21.6	1.04	180	1	112.5	112.5	0	0	0	0	0	0	0	0	0	0	150;
	3071	127.65	-29.4589112	36.25	-24.51	1	204.24	1	127.65	127.65	0	0	0	0	0	0	0	0	0	0	170.2;
	3074	74.85	3.25915338	21.26	-14.37	1	119.76	1	74.85	74.85	0	0	0	0	0	0	0	0	0	0	99.8;
	3081	186.75	31.5518085	53.04	-35.86	1.04	298.8	1	186.75	186.75	0	0	0	0	0	0	0	0	0	0	249;
	3084	174.37	-12.2859002	49.52	-33.48	1	279	1	174.37	174.37	0	0	0	0	0	0	0	0	0	0	232.5;
	3086	56.25	1.55876066	15.97	-10.8	1	90	1	56.25	56.25	0	0	0	0	0	0	0	0	0	0	75;
	3087	0	0	15.97	-10.8	1	90	0	75	22.5	0	0	0	0	0	0	0	0	0	0	75;
	3092	150	21.9080124	42.6	-28.8	1.04	240	1	150	150	0	0	0	0	0	0	0	0	0	0	200;
	3095	90.45	17.4174517	25.69	-17.37	1.04	144.72	1	90.45	90.45	0	0	0	0	0	0	0	0	0	0	120.6;
	3098	120	21.4242863	34.08	-23.04	1.04	192	1	120	120	0	0	0	0	0	0	0	0	0	0	160;
	3105	44.5	-3.89855639	17.07	-0.74	1	18	1	44.5	44.5	0	0	0	0	0	0	0	0	0	0	15;
	3106	53.02	-2.85149333	62.48	-2.69	1	65.88	1	53.02	53.02	0	0	0	0	0	0	0	0	0	0	54.9;
	3110	63	13.7099805	17.89	-12.1	1.04	100.8	1	63	63	0	0	0	0	0	0	0	0	0	0	84;
	3112	56.1	-1.98562142	15.93	-10.77	1	89.76	1	56.1	56.1	0	0	0	0	0	0	0	0	0	0	74.8;
	3113	56.1	-1.29692857	15.93	-10.77	1	89.76	1	56.1	56.1	0	0	0	0	0	0	0	0	0	0	74.8;
	3117	47.25	-5.00772615	13.42	-9.07	1	75.6	1	47.25	47.25	0	0	0	0	0	0	0	0	0	0	63;
	3118	90	-8.41621273	25.56	-17.28	1	144	1	90	90	0	0	0	0	0	0	0	0	0	0	120;
	3120	29.7	-6.14524125	0	0	1	47.52	1	29.7	29.7	0	0	0	0	0	0	0	0	0	0	39.6;
	3122	147.75	1.8055256	41.96	-28.37	1	236.4	1	147.75	147.75	0	0	0	0	0	0	0	0	0	0	197;
	3127	101.25	-23.0046326	28.76	-19.44	1	162	1	101.25	101.25	0	0	0	0	0	0	0	0	0	0	135;
	3129	94.88	-59.4511014	26.94	-18.22	1	151.8	1	94.88	94.88	0	0	0	0	0	0	0	0	0	0	126.5;
	3131	85.5	31.3007669	24.28	-16.42	1.02	136.8	1	85.5	85.5	0	0	0	0	0	0	0	0	0	0	114;
	3133	0	0	26.11	-5.69	1.04	61.56	0	51.3	15.39	0	0	0	0	0	0	0	0	0	0	51.3;
	3133	0	0	26.11	-5.69	1.04	61.56	0	51.3	15.39	0	0	0	0	0	0	0	0	0	0	51.3;
	3133	0	0	26.11	-5.69	1.04	61.56	0	51.3	15.39	0	0	0	0	0	0	0	0	0	0	51.3;
	3137	75.9	64.3456726	21.56	-14.57	1.03	121.44	1	75.9	75.9	0	0	0	0	0	0	0	0	0	0	101.2;
	3141	68.62	-73.5941426	19.49	-13.18	1	109.8	1	68.62	68.62	0	0	0	0	0	0	0	0	0	0	91.5;
	4010	151.2	19.0514202	42.94	-29.03	1.03	241.92	1	151.2	151.2	0	0	0	0	0	0	0	0	0	0	201.6;
	4026	408.86	60.6730096	191.06	-50.02	1.03	492	1	410	123	0	0	0	0	0	0	0	0	0	0	410;
	4030	460.56	-61.3568758	290.04	-75.93	1.01	746.88	1	622.4	186.72	0	0	0	0	0	0	0	0	0	0	622.4;
	4045	93.4	10.6420493	35.86	-1.54	1.02	37.8	1	93.4	93.4	0	0	0	0	0	0	0	0	0	0	31.5;
	4046	28.5	4.02759554	10.94	-0.47	1.02	11.52	1	28.5	28.5	0	0	0	0	0	0	0	0	0	0	9.6;
	4047	27.48	8.96193835	75.1	-3.23	1.02	79.2	1	27.48	27.48	0	0	0	0	0	0	0	0	0	0	66;
	4050	150	-50.8865506	42.6	-28.8	1	240	1	150	150	0	0	0	0	0	0	0	0	0	0	200;
	4052	44.08	30.8666264	22.5	-4.91	1.04	53.04	1	44.2	13.26	0	0	0	0	0	0	0	0	0	0	44.2;
	4058	99.6	6.42010289	73.3	-15.98	1.03	172.8	1	144	43.2	0	0	0	0	0	0	0	0	0	0	144;
	4059	84.08	5.39187266	73.3	-15.98	1.03	172.8	1	144	43.2	0	0	0	0	0	0	0	0	0	0	144;
	4060	124.4	7.17491926	73.3	-15.98	1.03	172.8	1	144	43.2	0	0	0	0	0	0	0	0	0	0	144;
	4061	148.87	8.28179471	87.72	-19.13	1.03	206.8	1	172.33	51.7	0	0	0	0	0	0	0	0	0	0	172.33;
	4062	171.85	8.03850071	87.72	-19.13	1.03	206.8	1	172.33	51.7	0	0	0	0	0	0	0	0	0	0	172.33;
	4063	124.75	8.65513895	87.72	-19.13	1.03	206.8	1	172.33	51.7	0	0	0	0	0	0	0	0	0	0	172.33;
	4065	46.87	12.0136026	23.92	-5.22	1.02	56.4	1	47	14.1	0	0	0	0	0	0	0	0	0	0	47;
	4075	0	0	89.75	-19.57	1.03	211.6	0	176.33	52.9	0	0	0	0	0	0	0	0	0	0	176.33;
	4076	175.84	31.6483486	89.75	-19.57	1.03	211.6	1	176.33	52.9	0	0	0	0	0	0	0	0	0	0	176.33;
	4077	97.06	25.0705196	89.75	-19.57	1.03	211.6	1	176.33	52.9	0	0	0	0	0	0	0	0	0	0	176.33;
	4082	242.72	22.0882334	123.89	-27.02	1.04	292.08	1	243.4	73.02	0	0	0	0	0	0	0	0	0	0	243.4;
	4083	242.72	22.2188239	123.89	-27.02	1.04	292.08	1	243.4	73.02	0	0	0	0	0	0	0	0	0	0	243.4;
	4084	242.72	31.2053588	123.89	-27.02	1.04	292.08	1	243.4	73.02	0	0	0	0	0	0	0	0	0	0	243.4;
	4085	168.05	31.3207172	179.17	-39.07	1.04	422.4	1	352	105.6	0	0	0	0	0	0	0	0	0	0	352;
	4090	0	0	0.65	-0.17	1.01	1.68	0	1.4	0.42	0	0	0	0	0	0	0	0	0	0	1.4;
	4091	23.43	0.294250101	10.95	-2.87	1.01	28.2	1	23.5	7.05	0	0	0	0	0	0	0	0	0	0	23.5;
	4092	0	0	3.54	-0.93	1.01	9.12	0	7.6	2.28	0	0	0	0	0	0	0	0	0	0	7.6;
	4093	27.92	-0.473312915	13.05	-3.42	1.01	33.6	1	28	8.4	0	0	0	0	0	0	0	0	0	0	28;
	4094	27.92	0.183798474	13.05	-3.42	1.01	33.6	1	28	8.4	0	0	0	0	0	0	0	0	0	0	28;
	4095	27.92	-0.164603715	13.05	-3.42	1.01	33.6	1	28	8.4	0	0	0	0	0	0	0	0	0	0	28;
	4096	0	0	13.05	-3.42	1.01	33.6	0	28	8.4	0	0	0	0	0	0	0	0	0	0	28;
	4097	27.92	-0.170571374	13.05	-3.42	1.01	33.6	1	28	8.4	0	0	0	0	0	0	0	0	0	0	28;
	4098	0	0	13.05	-3.42	1.01	33.6	0	28	8.4	0	0	0	0	0	0	0	0	0	0	28;
	4105	135	18.3665599	38.34	-25.92	1.01	216	1	135	135	0	0	0	0	0	0	0	0	0	0	180;
	4115	131.43	57.1385677	67.09	-14.63	1.04	158.16	1	131.8	39.54	0	0	0	0	0	0	0	0	0	0	131.8;
	4116	123.76	53.011947	67.09	-14.63	1.04	158.16	1	131.8	39.54	0	0	0	0	0	0	0	0	0	0	131.8;
	4133	0	0	17.1	-3.73	1	40.32	0	33.6	10.08	0	0	0	0	0	0	0	0	0	0	33.6;
	4134	10.21	-8.94663863	17.1	-3.73	1	40.32	1	33.6	10.08	0	0	0	0	0	0	0	0	0	0	33.6;
	4135	10.21	-9.50179932	17.1	-3.73	1	40.32	1	33.6	10.08	0	0	0	0	0	0	0	0	0	0	33.6;
	4136	10.21	-7.19406128	17.1	-3.73	1	40.32	1	33.6	10.08	0	0	0	0	0	0	0	0	0	0	33.6;
	4137	0	0	34.2	-7.46	1	80.64	0	67.2	20.16	0	0	0	0	0	0	0	0	0	0	67.2;
	4138	0	0	33.59	-7.33	1	79.2	0	66	19.8	0	0	0	0	0	0	0	0	0	0	66;
	4142	141	38.8814051	40.04	-27.07	1.04	225.6	1	141	141	0	0	0	0	0	0	0	0	0	0	188;
	4153	212.4	79.040886	60.32	-40.78	1.04	339.84	1	212.4	212.4	0	0	0	0	0	0	0	0	0	0	283.2;
	4160	197.22	52.1229383	100.66	-21.95	1.03	237.32	1	197.77	59.33	0	0	0	0	0	0	0	0	0	0	197.77;
	4161	87.79	21.9856473	100.66	-21.95	1.03	237.32	1	197.77	59.33	0	0	0	0	0	0	0	0	0	0	197.77;
	4162	112.46	20.8828649	100.66	-21.95	1.03	237.32	1	197.77	59.33	0	0	0	0	0	0	0	0	0	0	197.77;
	4163	0	0	4.58	-1	1.03	10.8	0	9	2.7	0	0	0	0	0	0	0	0	0	0	9;
	4166	150.75	-42.8009655	42.81	-28.94	1	241.2	1	150.75	150.75	0	0	0	0	0	0	0	0	0	0	201;
	4177	112.5	13.7080455	31.95	-21.6	1.04	180	1	112.5	112.5	0	0	0	0	0	0	0	0	0	0	150;
	4181	150.07	195.307797	42.62	-28.81	1.04	240.12	1	150.07	150.07	0	0	0	0	0	0	0	0	0	0	200.1;
	4183	152.25	140.229339	43.24	-29.23	1.03	243.6	1	152.25	152.25	0	0	0	0	0	0	0	0	0	0	203;
	4192	74.79	5.45869249	38.17	-8.33	1.02	90	1	75	22.5	0	0	0	0	0	0	0	0	0	0	75;
	4192	183.26	13.3867446	93.54	-20.4	1.02	220.52	1	183.77	55.13	0	0	0	0	0	0	0	0	0	0	183.77;
	4192	0	0	12.22	-2.66	1.02	28.8	0	24	7.2	0	0	0	0	0	0	0	0	0	0	24;
	4192	60.83	4.44480322	31.05	-6.77	1.02	73.2	1	61	18.3	0	0	0	0	0	0	0	0	0	0	61;
	4192	10.37	0.759659776	5.29	-1.15	1.02	12.48	1	10.4	3.12	0	0	0	0	0	0	0	0	0	0	10.4;
	4192	136.48	19.4477452	135.9	-29.64	1.02	320.4	1	267	80.1	0	0	0	0	0	0	0	0	0	0	267;
	4192	155.9	19.4477452	135.9	-29.64	1.02	320.4	1	267	80.1	0	0	0	0	0	0	0	0	0	0	267;
	4192	155.9	19.4477452	135.9	-29.64	1.02	320.4	1	267	80.1	0	0	0	0	0	0	0	0	0	0	267;
	4192	183.26	13.3867446	93.54	-20.4	1.02	220.52	1	183.77	55.13	0	0	0	0	0	0	0	0	0	0	183.77;
	4192	183.26	13.3867446	93.54	-20.4	1.02	220.52	1	183.77	55.13	0	0	0	0	0	0	0	0	0	0	183.77;
	4194	151.2	135.814012	42.94	-29.03	1.02	241.92	1	151.2	151.2	0	0	0	0	0	0	0	0	0	0	201.6;
	4195	69	-199.554644	19.6	-13.25	1	110.4	1	69	69	0	0	0	0	0	0	0	0	0	0	92;
	5020	90	-19.2218825	25.56	-17.28	1	144	1	90	90	0	0	0	0	0	0	0	0	0	0	120;
	5023	0	0	2.44	-0.53	1.04	5.76	0	4.8	1.44	0	0	0	0	0	0	0	0	0	0	4.8;
	5035	0	0	2.14	-0.47	1.02	5.04	0	4.2	1.26	0	0	0	0	0	0	0	0	0	0	4.2;
	5036	0	0	3.26	-0.71	1.02	7.68	0	6.4	1.92	0	0	0	0	0	0	0	0	0	0	6.4;
	5037	93.74	54.8968329	157.01	-34.24	1.02	370.16	1	308.47	92.54	0	0	0	0	0	0	0	0	0	0	308.47;
	5038	93.74	53.373839	157.01	-34.24	1.02	370.16	1	308.47	92.54	0	0	0	0	0	0	0	0	0	0	308.47;
	5039	93.74	121.224551	157.01	-34.24	1.02	370.16	1	308.47	92.54	0	0	0	0	0	0	0	0	0	0	308.47;
	5040	93.74	40.0269589	157.01	-34.24	1.02	370.16	1	308.47	92.54	0	0	0	0	0	0	0	0	0	0	308.47;
	5041	93.74	57.8935757	157.01	-34.24	1.02	370.16	1	308.47	92.54	0	0	0	0	0	0	0	0	0	0	308.47;
	5042	93.74	49.8763001	157.01	-34.24	1.02	370.16	1	308.47	92.54	0	0	0	0	0	0	0	0	0	0	308.47;
	5051	84.46	65.8954789	43.11	-9.4	1.02	101.64	1	84.7	25.41	0	0	0	0	0	0	0	0	0	0	84.7;
	5057	0	0	161.53	-35.23	1	380.82	0	317.35	95.2	0	0	0	0	0	0	0	0	0	0	317.35;
	5058	251.16	-22.2101199	161.53	-35.23	1	380.82	1	317.35	95.2	0	0	0	0	0	0	0	0	0	0	317.35;
	5065	10.57	87.8959965	5.4	-1.18	1.03	12.72	1	10.6	3.18	0	0	0	0	0	0	0	0	0	0	10.6;
	5066	0	0	0.92	-0.2	1.03	2.16	0	1.8	0.54	0	0	0	0	0	0	0	0	0	0	1.8;
	5067	437.05	148.812252	223.08	-48.65	1.03	525.92	1	438.27	131.48	0	0	0	0	0	0	0	0	0	0	438.27;
	5068	437.05	140.30985	223.08	-48.65	1.03	525.92	1	438.27	131.48	0	0	0	0	0	0	0	0	0	0	438.27;
	5069	437.05	131.706625	223.08	-48.65	1.03	525.92	1	438.27	131.48	0	0	0	0	0	0	0	0	0	0	438.27;
	5089	0	0	47.57	-2.05	1.01	50.16	0	123.9	0	0	0	0	0	0	0	0	0	0	0	41.8;
...
];

%% branch data
%	fbus	tbus	r	x	b	rateA	rateB	rateC	ratio	angle	status	angmin	angmax	Pf	Qf	Pt	Qt
mpc.branch = [
	1001	1064	0.00524	0.0358	0.00609	221	0	0	0	0	1	0	0	67.6144	10.1654	-67.3579	-8.9912;
	1001	1064	0.00524	0.0358	0.00609	221	0	0	0	0	1	0	0	67.6144	10.1654	-67.3579	-8.9912;
	1001	1071	0.00435	0.02808	0.00536	221	0	0	0	0	1	0	0	-78.0044	-13.1104	78.2887	14.4291;
	1001	1071	0.00435	0.02808	0.00536	221	0	0	0	0	1	0	0	-78.0044	-13.1104	78.2887	14.4291;
	1002	1007	0.07776	0.46693	0.06336	98	0	0	0	0	1	0	0	1.1191	-5.5821	-1.1135	-0.7631;
	1010	1002	0.05552	0.1357	0.01777	98	0	0	0	0	1	0	0	16.6838	-2.6160	-16.5291	1.2121;
	1004	1003	0.0045	0.11582	0	250	0	0	1	0	1	0	0	-28.5880	3.1248	28.6244	-2.1858;
	1022	1003	0.00485	0.02012	0.00341	221	0	0	0	0	1	0	0	77.6489	-0.7588	-77.3632	1.5962;
	1055	1003	0.01574	0.03782	0.00513	98	0	0	0	0	1	0	0	-48.3708	-0.2231	48.7388	0.5897;
	1004	3133	0.0042	0.03	0.055	523	0	0	0	0	1	0	0	186.8380	-48.9080	-185.3132	54.1466;
	1006	1005	0.00602	0.14707	0	42	0	0	1	0	1	0	0	25.7300	-5.3175	-25.6884	6.3327;
	1025	1005	0.01842	0.0821	0.01204	149	0	0	0	0	1	0	0	41.5877	8.2396	-41.2683	-8.0541;
	1005	1061	0.00599	0.02484	0.00422	221	0	0	0	0	1	0	0	76.1291	-20.1791	-75.7632	21.2682;
	1067	1005	0.01711	0.04181	0.00548	98	0	0	0	0	1	0	0	9.2696	-22.2144	-9.1724	21.9004;
	1007	1015	0.06224	0.37375	0.05072	98	0	0	0	0	1	0	0	-1.2591	-2.2102	1.2602	-2.9401;
	1031	1007	0.04803	0.27434	0.04123	98	0	0	0	0	1	0	0	4.6499	-4.2560	-4.6374	0.1492;
	1009	1008	0.00455	0.09471	0	120	0	0	1	0	1	0	0	61.8700	-11.3472	-61.6900	15.0946;
	1008	1032	0.04501	0.11002	0.01441	98	0	0	0	0	1	0	0	57.7860	-3.0786	-56.3092	5.2498;
	1008	1069	0.0083	0.03628	0.00553	149	0	0	0	0	1	0	0	3.9040	-12.0159	-3.8915	11.5044;
	1011	1010	0.00721	0.3246	0	46	0	0	1	0	1	0	0	9.9700	-1.5138	-9.9627	1.8439;
	1010	1015	0.04703	0.28243	0.03833	98	0	0	0	0	1	0	0	8.8093	-4.4572	-8.7702	0.8101;
	1010	1030	0.0616	0.3699	0.0502	98	0	0	0	0	1	0	0	-15.5304	2.1303	15.6909	-6.2049;
	1012	1087	0.04934	0.20469	0.03473	149	0	0	0	0	1	0	0	-75.6185	15.6392	78.6122	-6.7178;
	3051	1012	0.0571	0.24977	0.03804	149	0	0	0	0	1	0	0	-69.5770	16.6801	72.6285	-7.0644;
	1013	1031	0.04509	0.27078	0.03675	98	0	0	0	0	1	0	0	13.9916	-4.7865	-13.8999	1.6360;
	1047	1013	0.00947	0.06117	0.01167	221	0	0	0	0	1	0	0	58.8542	-8.0508	-58.5227	9.0191;
	1086	1013	0.079	0.19311	0.02529	98	0	0	0	0	1	0	0	-15.0176	10.6380	15.3011	-12.5125;
	1014	1047	0.03566	0.14794	0.0251	149	0	0	0	0	1	0	0	17.7112	-3.1950	-17.5993	1.1277;
	1014	1083	0.04105	0.18293	0.02682	149	0	0	0	0	1	0	0	-19.9312	2.5650	20.0987	-4.5368;
	1016	1034	0.01828	0.10976	0.01489	98	0	0	0	0	1	0	0	-15.8319	13.8799	15.9140	-14.9100;
	1068	1016	0.02773	0.15837	0.0238	98	0	0	0	0	1	0	0	-12.8141	-18.0372	12.9419	16.3754;
	1018	1017	0.03227	0.07887	0.01033	98	0	0	0	0	1	0	0	26.7180	1.4340	-26.4818	-1.8596;
	1017	1029	0.03244	0.14188	0.02161	149	0	0	0	0	1	0	0	37.1907	-23.1040	-36.5594	23.7429;
	1037	1017	0.00752	0.03352	0.00491	221	0	0	0	0	1	0	0	-57.0127	-8.0879	57.2758	8.7925;
	1047	1017	0.036	0.156	0.024	150	0	0	0	0	1	0	0	89.1718	-0.9933	-86.3247	10.9712;
	1024	1018	0.01094	0.06572	0.00892	98	0	0	0	0	1	0	0	26.8682	1.0576	-26.7880	-1.4540;
	1019	1040	0.04978	0.20651	0.03504	149	0	0	0	0	1	0	0	-13.9820	4.4477	14.0986	-7.4440;
	1019	1045	0.01522	0.0372	0.00487	221	0	0	0	0	1	0	0	105.3831	18.9154	-103.6343	-15.1164;
	1019	1071	0.0044	0.028	0.0054	225	0	0	0	0	1	0	0	-44.6084	56.8232	44.8397	-55.8828;
	1071	1019	0.0044	0.028	0.0054	225	0	0	0	0	1	0	0	44.8397	-55.8828	-44.6084	56.8232;
	1019	1084	0.03	0.16	0.025	220	0	0	0	0	1	0	0	-63.9643	-11.7485	65.2268	15.8814;
	1021	1020	0.00327	0.07812	0	250	0	0	1	0	1	0	0	149.6300	-32.3557	-148.8636	50.6640;
	1025	1020	0.00828	0.03434	0.00583	149	0	0	0	0	1	0	0	51.1963	-30.0951	-50.9177	30.6391;
	1084	1020	0.01056	0.06337	0.0086	221	0	0	0	0	1	0	0	-33.7459	26.6358	33.9288	-26.4571;
	1020	3059	0.0189	0.06	0.006	300	0	0	0	0	1	0	0	64.4250	7.3879	-63.6709	-5.6173;
	1020	3130	0.00996	0.06938	0.01134	221	0	0	0	0	1	0	0	101.4275	8.7002	-100.4482	-3.0590;
	1023	1022	0.00535	0.11733	0	250	0	0	1	0	1	0	0	135.0000	2.8739	-134.0437	18.0977;
	1022	1028	0.01433	0.09253	0.01765	221	0	0	0	0	1	0	0	28.1974	-8.6695	-28.0777	7.6299;
	1022	1028	0.01433	0.09253	0.01765	221	0	0	0	0	1	0	0	28.1974	-8.6695	-28.0777	7.6299;
	1024	1090	0.01414	0.06303	0.00924	149	0	0	0	0	1	0	0	-89.9082	-18.9176	91.1136	23.3539;
	1026	1025	0.0042	0.18046	0	200	0	0	1	0	1	0	0	93.1500	-6.1293	-92.7840	21.8554;
	1027	1045	0.02505	0.10957	0.01669	221	0	0	0	0	1	0	0	-15.7236	29.0750	16.0068	-29.4752;
	1056	1027	0.03121	0.0763	0.00999	250	0	0	0	0	1	0	0	87.8500	-13.2597	-85.4864	18.0137;
	1028	3109	0.00428	0.01875	0.00286	250	0	0	0	0	1	0	0	46.1453	-18.0999	-46.0435	18.2508;
	1029	1056	0.02054	0.11733	0.01763	221	0	0	0	0	1	0	0	-46.6206	-7.1747	47.0736	7.9606;
	1030	1038	0.07404	0.42285	0.06354	98	0	0	0	0	1	0	0	-23.6568	0.8914	24.0844	-4.8254;
	1083	1030	0.06537	0.37334	0.0561	98	0	0	0	0	1	0	0	16.8468	-2.9357	-16.6641	-1.6665;
	1033	1032	0.00283	0.06758	0	170	0	0	1	0	1	0	0	-118.9328	26.8848	119.3536	-16.8371;
	1032	1036	0.01956	0.11746	0.01594	98	0	0	0	0	1	0	0	4.6274	-4.0559	-4.6210	2.5322;
	1038	1032	0.045	0.11	0.015	155	0	0	0	0	1	0	0	69.9041	-11.6761	-67.6718	15.6432;
	1033	1081	0.003	0.031	0.059	548	0	0	0	0	1	0	0	105.5923	-48.1847	-105.1964	46.3076;
	1033	3050	0.0139	0.136	0.262	647	0	0	0	0	1	0	0	221.8405	-4.6551	-214.9899	45.3842;
	1035	1034	0.00438	0.08496	0	130	0	0	1	0	1	0	0	67.5000	-7.4166	-67.2980	11.3343;
	1067	1034	0.00795	0.04771	0.00647	98	0	0	0	0	1	0	0	-51.1750	-2.9712	51.3840	3.5757;
	1088	1036	0.02065	0.11793	0.01772	98	0	0	0	0	1	0	0	9.0023	4.7583	-8.9790	-6.3822;
	1037	1071	0.00669	0.04319	0.00824	300	0	0	0	0	1	0	0	-45.2273	-20.8821	45.4016	21.2171;
	1039	1038	0.00201	0.08591	0	200	0	0	1	0	1	0	0	110.6300	-2.6102	-110.3839	13.1305;
	1082	1038	0.01115	0.04969	0.00729	149	0	0	0	0	1	0	0	61.6114	-22.2115	-61.1350	23.6026;
	1083	1038	0.01	0.05	0.007	221	0	0	0	0	1	0	0	-76.8955	22.6974	77.5303	-20.2317;
	1040	1090	0.02991	0.13329	0.01955	149	0	0	0	0	1	0	0	-58.4586	-5.1260	59.4985	7.7778;
	1042	1041	0.00419	0.11123	0	145	0	0	1	0	1	0	0	0.0000	0.0000	0.0000	0.0000;
	1043	1041	0.003	0.12844	0	95	0	0	1	0	1	0	0	44.1000	-1.6227	-44.0416	4.1240;
	1065	1041	0.00386	0.02203	0.00331	98	0	0	0	0	1	0	0	15.7554	7.7961	-15.7435	-8.0614;
	1041	1067	0.00393	0.01722	0.00262	149	0	0	0	0	1	0	0	59.7851	3.9374	-59.6446	-3.5844;
	1044	3019	0.03857	0.17192	0.02521	149	0	0	0	0	1	0	0	47.0579	-14.4189	-46.1588	15.8248;
	3130	1044	0.02731	0.19029	0.03111	221	0	0	0	0	1	0	0	62.7920	-6.1044	-61.7379	10.2589;
	1045	1064	0.00545	0.03794	0.0062	221	0	0	0	0	1	0	0	-10.9326	16.6616	10.9558	-17.0876;
	1087	1046	0.03262	0.14269	0.02173	149	0	0	0	0	1	0	0	77.9836	-14.0243	-75.9903	20.5225;
	1046	3009	0.05654	0.23454	0.0398	149	0	0	0	0	1	0	0	64.9103	-11.4034	-62.5299	17.2220;
	1048	1047	0.00335	0.06576	0	390	0	0	1	0	1	0	0	0.0000	0.0000	0.0000	0.0000;
	1049	1047	0.00276	0.11783	0	390	0	0	1	0	1	0	0	0.0000	0.0000	0.0000	0.0000;
	1050	1047	0.00313	0.09941	0	124	0	0	1	0	1	0	0	89.1500	-1.5905	-88.9012	9.4938;
	1051	1047	0.0056	0.1283	0	117	0	0	1	0	1	0	0	89.1500	-0.9048	-88.7049	11.1028;
	1052	1047	0.00368	0.0826	0	110	0	0	1	0	1	0	0	89.1500	-3.9729	-88.8569	10.5508;
	1053	1047	0.0023	0.08808	0	250	0	0	1	0	1	0	0	-80.1051	13.6829	80.2539	-7.9848;
	1047	1085	0.00947	0.06117	0.01167	221	0	0	0	0	1	0	0	55.7825	-15.2462	-55.4691	16.0917;
	1053	1081	0.003	0.03	0.06	548	0	0	0	0	1	0	0	80.1051	-13.6829	-79.9132	9.4703;
	1054	1056	0.02202	0.09633	0.01467	149	0	0	0	0	1	0	0	-12.3159	-15.0723	12.3940	13.9120;
	1089	1054	0.08737	0.21357	0.02796	98	0	0	0	0	1	0	0	2.8100	-13.2405	-2.6741	10.8223;
	1055	1089	0.04982	0.12179	0.01595	98	0	0	0	0	1	0	0	44.3908	-0.9069	-43.4100	1.7405;
	1057	1056	0.00315	0.1312	0	160	0	0	1	0	1	0	0	0.0000	0.0000	0.0000	0.0000;
	1056	1061	0.02267	0.12946	0.01945	150	0	0	0	0	1	0	0	-58.7258	21.5661	59.5883	-18.6401;
	1056	1065	0.02269	0.12962	0.01948	250	0	0	0	0	1	0	0	-88.5919	32.2196	90.5442	-23.0630;
	1059	1058	0.02655	0.46187	0	33	0	0	1	0	1	0	0	0.0000	0.0000	0.0000	0.0000;
	1060	1058	0.00894	0.38854	0	27	0	0	1	0	1	0	0	0.0000	0.0000	0.0000	0.0000;
	1069	1058	0.0074	0.05155	0.00843	221	0	0	0	0	1	0	0	87.0212	-4.7420	-86.4744	7.6880;
	1069	1058	0.0074	0.05155	0.00843	221	0	0	0	0	1	0	0	87.0212	-4.7420	-86.4744	7.6880;
	1058	1087	0.01573	0.10956	0.01791	221	0	0	0	0	1	0	0	79.7444	-9.5930	-78.7529	14.6686;
	1058	1087	0.01573	0.10956	0.01791	221	0	0	0	0	1	0	0	79.7444	-9.5930	-78.7529	14.6686;
	1062	1061	0.0163	0.31787	0	29	0	0	1	0	1	0	0	0.0000	0.0000	0.0000	0.0000;
	1063	1061	0.00567	0.10409	0	260	0	0	1	0	1	0	0	0.0000	0.0000	0.0000	0.0000;
	1061	3042	0.054	0.18	0.028	221	0	0	0	0	1	0	0	16.1750	-2.6281	-16.0350	0.2690;
	1066	1065	0.00508	0.12315	0	200	0	0	1	0	1	0	0	106.8800	-1.1974	-106.2996	15.2670;
	1088	1068	0.02962	0.16921	0.02543	98	0	0	0	0	1	0	0	47.2477	0.0632	-46.5859	1.2072;
	1070	1069	0.00297	0.07	0	220	0	0	1	0	1	0	0	120.3800	38.8598	-119.9406	-28.5038;
	1082	1069	0.02137	0.0952	0.01396	149	0	0	0	0	1	0	0	50.8886	-24.8765	-50.2102	26.4834;
	1072	1071	0.00529	0.08551	0	240	0	0	1	0	1	0	0	191.5900	32.8460	-189.6305	-1.1722;
	1073	1071	0.00499	0.14254	0	240	0	0	1	0	1	0	0	191.5900	37.2164	-189.7267	16.0098;
	1074	1071	0.00575	0.12453	0	240	0	0	1	0	1	0	0	191.5900	34.0941	-189.4554	12.1352;
	1075	1071	0.00373	0.09967	0	240	0	0	1	0	1	0	0	191.5900	36.1356	-190.2001	1.0049;
	1076	1071	0.00141	0.04937	0	230	0	0	1	0	1	0	0	0.0000	0.0000	0.0000	0.0000;
	1077	1071	0.00641	0.12047	0	230	0	0	1	0	1	0	0	0.0000	0.0000	0.0000	0.0000;
	1078	1071	0.00533	0.19087	0	137	0	0	1	0	1	0	0	95.2300	19.0752	-94.7371	-1.4259;
	1079	1071	0.00013	0.046	0	2000	0	0	1	0	1	0	0	-637.8347	152.2996	638.3827	41.6157;
	1080	1071	0.01206	0.20208	0	136	0	0	1	0	1	0	0	95.2300	15.7655	-94.1285	2.6920;
	1081	1071	0.00167	0.0665	0	350	0	0	1	0	1	0	0	73.7372	39.6347	-73.6228	-35.0790;
	3048	1079	0.0013	0.015	1.02	2300	0	0	0	0	1	0	0	-364.1858	195.0406	366.5323	-275.1518;
	3048	1079	0.0013	0.015	1.02	2300	0	0	0	0	1	0	0	-364.1858	195.0406	366.5323	-275.1518;
	1081	3058	0.0091	0.089	0.171	548	0	0	0	0	1	0	0	111.3725	-37.2044	-110.1970	30.8590;
	1084	3130	0.02049	0.09131	0.01339	221	0	0	0	0	1	0	0	55.1391	18.4108	-54.4938	-16.9467;
	1085	1086	0.03392	0.14838	0.0226	149	0	0	0	0	1	0	0	24.8868	-10.1687	-24.6524	8.8893;
	1090	1085	0.02018	0.13786	0.02346	221	0	0	0	0	1	0	0	-9.2422	9.8176	9.2824	-11.9529;
	2029	1091	0.0389	0.17144	0.0798	187	0	0	0	0	1	0	0	-18.5906	-5.7746	18.7225	-1.9307;
	1091	2048	0.02193	0.09667	0.045	187	0	0	0	0	1	0	0	12.6043	-6.9512	-12.5666	2.3885;
	2098	1091	0.00554	0.02443	0.01137	187	0	0	0	0	1	0	0	43.0462	-6.3473	-42.9467	5.5919;
	2022	2001	0.00839	0.03697	0.01721	187	0	0	0	0	1	0	0	66.0161	7.1118	-65.6523	-7.2501;
	2027	2001	0.00955	0.04062	0.02032	187	0	0	0	0	1	0	0	-17.2611	4.5425	17.2923	-6.4499;
	2003	2002	0.0003	0.01986	0	981	0	0	1	0	1	0	0	-202.6831	-0.4085	202.8032	8.3647;
	2004	2002	0.00022	0.01466	0	635	0	0	1	0	1	0	0	0.0000	0.0000	0.0000	0.0000;
	2005	2002	0.00033	0.01714	0	645	0	0	1	0	1	0	0	0.0000	0.0000	0.0000	0.0000;
	2006	2002	0.00036	0.02679	0	636	0	0	1	0	1	0	0	0.0000	0.0000	0.0000	0.0000;
	2021	2002	0.00097	0.01175	0.78032	2295	0	0	0	0	1	0	0	739.7001	-75.4874	-734.5204	58.0385;
	2002	2101	0.00031	0.0037	0.24573	2020	0	0	0	0	1	0	0	531.7171	-66.4032	-530.8562	51.3953;
	2038	2003	0.00353	0.02067	0.01032	251	0	0	0	0	1	0	0	-41.8236	-7.7979	41.8860	7.1082;
	2003	2047	0.0013	0.0099	0.0052	310	0	0	0	0	1	0	0	160.7971	-6.6998	-160.4687	8.6674;
	2007	2114	0.00888	0.05207	0.026	251	0	0	0	0	1	0	0	-75.9937	-2.4105	76.5039	2.7668;
	2007	2122	0.00861	0.03661	0.01831	187	0	0	0	0	1	0	0	66.4537	-0.2895	-66.0755	0.0670;
	2014	2008	0.02253	0.09931	0.04623	187	0	0	0	0	1	0	0	-10.0909	1.4781	10.1168	-6.0325;
	2008	2052	0.01877	0.08271	0.0385	187	0	0	0	0	1	0	0	-18.1768	3.7525	18.2443	-7.3329;
	2009	2049	0.01224	0.07176	0.03583	251	0	0	0	0	1	0	0	-102.9304	23.3601	104.2473	-19.3702;
	2009	2082	0.00735	0.03126	0.01563	187	0	0	0	0	1	0	0	-8.7697	57.2159	9.0123	-57.7889;
	2109	2009	0.00725	0.03084	0.01542	250	0	0	0	0	1	0	0	-72.1409	-26.7773	72.5601	26.9719;
	2061	2010	0.02439	0.10748	0.05003	187	0	0	0	0	1	0	0	-15.6314	0.3288	15.6905	-5.3002;
	2010	2079	0.02061	0.09083	0.04228	187	0	0	0	0	1	0	0	-33.9785	3.7621	34.2129	-7.1623;
	2010	2091	0.02461	0.10467	0.05235	187	0	0	0	0	1	0	0	-38.5220	8.8789	38.9027	-12.7287;
	2012	2011	0.00044	0.03546	0	461	0	0	1	0	1	0	0	117.0563	-49.0349	-116.9869	54.6303;
	2013	2011	0.00043	0.02897	0	412	0	0	1	0	1	0	0	150.4500	-95.0847	-150.3138	104.2613;
	2127	2011	0.00108	0.01307	0.86827	2020	0	0	0	0	1	0	0	-266.4397	76.4909	267.3007	-158.8916;
	2012	2041	0.01245	0.05297	0.02649	187	0	0	0	0	1	0	0	-72.3487	15.8644	73.0233	-15.6999;
	2012	2052	0.02008	0.08851	0.0412	187	0	0	0	0	1	0	0	43.4559	-2.8302	-43.0843	0.2929;
	2093	2012	0.01029	0.04536	0.02111	187	0	0	0	0	1	0	0	-28.6829	16.9412	28.7975	-18.6018;
	2012	2123	0.00995	0.0423	0.02115	251	0	0	0	0	1	0	0	-116.9610	54.6024	118.5967	-49.7854;
	2014	2029	0.01859	0.07908	0.03955	187	0	0	0	0	1	0	0	-15.3391	-8.6781	15.3906	4.8646;
	2015	2037	0.00862	0.03799	0.01769	187	0	0	0	0	1	0	0	8.6139	-31.3093	-8.5293	29.8632;
	5014	2015	0.00961	0.04237	0.01972	187	0	0	0	0	1	0	0	13.4113	-31.4890	-13.3039	29.9793;
	2043	2016	0.00593	0.02614	0.01217	187	0	0	0	0	1	0	0	22.4889	-10.1670	-22.4541	9.0785;
	2069	2016	0.0084	0.03705	0.01725	187	0	0	0	0	1	0	0	47.0598	27.9975	-46.8159	-28.7085;
	2018	2017	0.00048	0.05045	0	271	0	0	1	0	1	0	0	28.5623	-15.0015	-28.5575	15.5061;
	2019	2017	0.0002	0.01182	0	454	0	0	1	0	1	0	0	0.0000	0.0000	0.0000	0.0000;
	2017	2096	0.00253	0.03068	2.03836	2020	0	0	0	0	1	0	0	-254.2173	-51.1048	255.8425	-142.7910;
	2017	2127	0.00089	0.01081	0.71846	2020	0	0	0	0	1	0	0	282.7747	-175.5564	-281.9410	108.9021;
	2018	2093	0.01163	0.05125	0.02386	187	0	0	0	0	1	0	0	-28.5623	15.0015	28.6829	-16.9412;
	2045	2020	0.00097	0.00548	0.00295	310	0	0	0	0	1	0	0	-166.3480	17.3941	166.6215	-16.1419;
	2055	2020	0.00102	0.00744	0.00422	409	0	0	0	0	1	0	0	215.0642	0.4761	-214.5915	2.5519;
	2022	2021	0.00034	0.01888	0	867	0	0	1	0	1	0	0	-183.0165	-12.3501	183.1286	18.5788;
	2023	2021	0.00054	0.03406	0	319	0	0	1	0	1	0	0	83.1000	19.5500	-83.0622	-17.1642;
	2024	2021	0.00036	0.02425	0	391	0	0	1	0	1	0	0	166.2000	28.4804	-166.1016	-21.8530;
	2113	2021	0.0001	0.00124	0.08207	2020	0	0	0	0	1	0	0	674.1166	-98.7494	-673.6649	95.9257;
	2022	2040	0.02207	0.09391	0.04697	187	0	0	0	0	1	0	0	12.6422	-2.5086	-12.6076	-2.1225;
	2064	2022	0.00558	0.03156	0.01697	251	0	0	0	0	1	0	0	-92.3255	-3.5134	92.7982	4.4670;
	2025	2055	0.0023	0.01016	0.00473	187	0	0	0	0	1	0	0	-33.2409	-25.1291	33.2809	24.8354;
	2067	2025	0.00317	0.014	0.00651	187	0	0	0	0	1	0	0	6.3869	-14.5090	-6.3791	13.8991;
	2058	2026	0.02475	0.10526	0.05264	187	0	0	0	0	1	0	0	63.9864	-23.6211	-62.8765	22.9732;
	2128	2026	0.01207	0.05318	0.02475	187	0	0	0	0	1	0	0	-43.9908	27.0547	44.3065	-28.2332;
	2027	2090	0.01692	0.07455	0.0347	187	0	0	0	0	1	0	0	13.7111	-5.5525	-13.6770	2.2144;
	2028	2045	0.00363	0.02129	0.01063	251	0	0	0	0	1	0	0	-142.9624	27.2876	143.7380	-23.7941;
	2028	2109	0.01026	0.0452	0.02104	250	0	0	0	0	1	0	0	-38.1489	-18.5100	38.3309	17.1973;
	2112	2028	0.00369	0.02161	0.01079	310	0	0	0	0	1	0	0	-165.8308	17.8333	166.8713	-12.8076;
	2030	2106	0.0118	0.05199	0.0242	187	0	0	0	0	1	0	0	66.8086	-19.1325	-66.2328	19.2910;
	2122	2030	0.00737	0.0432	0.02157	251	0	0	0	0	1	0	0	114.9381	-2.1612	-113.9586	5.7725;
	2031	2048	0.02398	0.10567	0.04919	187	0	0	0	0	1	0	0	33.2539	-10.0907	-32.9888	6.0843;
	2031	2087	0.02177	0.09259	0.04631	187	0	0	0	0	1	0	0	-39.0239	8.4607	39.3638	-11.8797;
	2032	2114	0.01097	0.04834	0.0225	187	0	0	0	0	1	0	0	-59.3723	0.2115	59.7557	-0.8066;
	2122	2032	0.01414	0.06232	0.02901	187	0	0	0	0	1	0	0	-55.5825	0.1942	56.0223	-1.1615;
	2129	2033	0.00522	0.02298	0.0107	187	0	0	0	0	1	0	0	-38.1861	16.4629	38.2781	-17.1165;
	2033	5288	0.00925	0.03935	0.01968	187	0	0	0	0	1	0	0	-51.8481	13.2665	52.1189	-14.0568;
	2034	2043	0.00439	0.01867	0.00934	187	0	0	0	0	1	0	0	26.7635	-9.7711	-26.7289	8.9670;
	2046	2034	0.00468	0.01993	0.00997	187	0	0	0	0	1	0	0	32.1544	-9.0589	-32.1035	8.2611;
	2035	2066	0.01411	0.08272	0.04131	251	0	0	0	0	1	0	0	-61.2130	9.1999	61.7366	-10.4472;
	2035	2091	0.01863	0.10528	0.05663	251	0	0	0	0	1	0	0	56.5330	-10.5299	-55.9527	7.8987;
	2036	2055	0.00216	0.0092	0.0046	300	0	0	0	0	1	0	0	-89.8277	39.2710	90.0354	-38.8460;
	2036	2082	0.00236	0.01003	0.00502	250	0	0	0	0	1	0	0	48.2377	-51.0510	-48.1220	51.0379;
	2037	2065	0.00415	0.02434	0.01216	251	0	0	0	0	1	0	0	140.1325	-38.7180	-139.2904	42.3885;
	2110	2037	0.00307	0.01798	0.00898	251	0	0	0	0	1	0	0	135.6445	-5.6306	-135.1032	7.8648;
	2081	2038	0.00639	0.03748	0.01871	251	0	0	0	0	1	0	0	-39.1231	-8.3659	39.2236	7.0579;
	2039	2086	0.00845	0.03725	0.01734	187	0	0	0	0	1	0	0	-52.8316	8.6220	53.0782	-9.2481;
	5285	2039	0.00569	0.03334	0.01665	251	0	0	0	0	1	0	0	22.8181	-7.0561	-22.7858	5.6035;
	2039	5455	0.00371	0.02173	0.01085	251	0	0	0	0	1	0	0	70.0574	-15.8055	-69.8641	15.8656;
	2040	2114	0.02335	0.09932	0.04967	187	0	0	0	0	1	0	0	-30.9937	1.7570	31.2190	-5.8562;
	2121	2040	0.00894	0.03938	0.01833	187	0	0	0	0	1	0	0	-27.6328	2.5885	27.7013	-4.1445;
...
];
