test/test_data/ACTIVSg2000_solved.csv
bus_number,Vm,bus_type,angle,generator_p,generator_q,load_p,load_q
1001,0.977911803,PQ,-0.3978691850207736,0.0,0.0,0.2078,0.058899999999999994
1002,0.998098686,PQ,-0.31534116044052785,0.0,0.0,0.15410000000000001,0.0437
1003,1.00822802,PQ,-0.3024818869257697,0.0,0.0,0.0,0.0
1004,1.01,PV,-0.3351409853079244,1.5825,-0.457831702,0.0,0.0
1005,1.00699483,PQ,-0.2851654718524141,0.0,0.0,0.0,0.0
1006,1.0,PV,-0.24726024884198078,0.25730000000000003,-0.053174921199999996,0.0,0.0
1007,1.00860206,PQ,-0.3224059984345301,0.0,0.0,0.0701,0.0199
1008,1.00966382,PQ,-0.14647520343245812,0.0,0.0,0.0,0.0
1009,1.0,PV,-0.08789412139597719,0.6187,-0.113472109,0.0,0.0
1010,1.00471986,PQ,-0.2918107082596274,0.0,0.0,0.0,0.0
1011,1.0,PV,-0.2594858561371928,0.09970000000000002,-0.0151381166,0.0,0.0
1012,0.99603377,PQ,-0.4428022118838111,0.0,0.0,0.029900000000000003,0.0085
1013,1.00238302,PQ,-0.26984523347779565,0.0,0.0,0.2923,0.0828
1014,1.00581018,PQ,-0.2066517900728886,0.0,0.0,0.0222,0.0063
1015,1.00802128,PQ,-0.3175510649234765,0.0,0.0,0.0751,0.0213
1016,1.01776435,PQ,-0.2730904149131498,0.0,0.0,0.028900000000000002,0.008199999999999999
1017,0.98022873,PQ,-0.37524257777295716,0.0,0.0,0.1834,0.052000000000000005
1018,0.990263465,PQ,-0.3541772617888293,0.0,0.0,0.0007000000000000001,0.0002
1019,0.99923396,PQ,-0.39095375942804683,0.0,0.0,0.6178,0.175
1020,1.0271778,PQ,-0.2726582103038322,0.0,0.0,0.0,0.0
1021,1.0,PV,-0.15757614621402502,1.4963,-0.32355730899999996,0.0,0.0
1022,1.01171551,PQ,-0.2871374739956819,0.0,0.0,0.0,0.0
1023,1.01,PV,-0.13165099635790276,1.35,0.028738687100000004,0.0,0.0
1024,0.994054606,PQ,-0.33640482359785406,0.0,0.0,0.6304,0.17859999999999998
1025,1.02112288,PQ,-0.25354370292986517,0.0,0.0,0.0,0.0
1026,1.0,PV,-0.08791413037412081,0.9315,-0.06129258469999999,0.0,0.0
1027,1.00511121,PQ,-0.45332795226338474,0.0,0.0,1.0121,0.2868
1028,1.01518059,PQ,-0.31362742164799456,0.0,0.0,0.1001,0.028399999999999998
1029,1.00172627,PQ,-0.4363082047656246,0.0,0.0,0.8318000000000001,0.2357
1030,0.998876392,PQ,-0.23167020699961358,0.0,0.0,0.2463,0.0698
1031,1.0047937,PQ,-0.308787531129764,0.0,0.0,0.0925,0.0262
1032,0.988532374,PQ,-0.21127578336264755,0.0,0.0,0.0,0.0
1033,1.0,PV,-0.29344507820442617,2.085,-0.759549781,0.0,0.0
1034,1.00500078,PQ,-0.25348193398230784,0.0,0.0,0.0,0.0
1035,1.0,PV,-0.19606451985586512,0.675,-0.0741655879,0.0,0.0
1036,0.991529751,PQ,-0.21747519461106066,0.0,0.0,0.136,0.0385
1037,0.972930837,PQ,-0.3946629226824097,0.0,0.0,1.0224,0.2897
1038,1.00452997,PQ,-0.1287982797810617,0.0,0.0,0.0,0.0
1039,1.0,PV,-0.03399044949821001,1.1063,-0.0261016609,0.0,0.0
1040,0.993906949,PQ,-0.35876857378834465,0.0,0.0,0.4436,0.1257
1041,1.00236563,PQ,-0.26746631480074234,0.0,0.0,0.0,0.0
1042,1.00236563,PQ,-0.26746631480074234,0.0,0.0,0.0,0.0
1043,1.0,PV,-0.21087919219671686,0.441,-0.0162271654,0.0,0.0
1044,1.01189815,PQ,-0.45742975002226394,0.0,0.0,0.14679999999999999,0.0416
1045,0.976725253,PQ,-0.4281420797215772,0.0,0.0,0.9856,0.2793
1046,1.01073908,PQ,-0.3931352534414316,0.0,0.0,0.1108,0.031400000000000004
1047,1.00271927,PQ,-0.2333157156356986,0.0,0.0,0.0,0.0
1048,1.00271927,PQ,-0.2333157156356986,0.0,0.0,0.0,0.0
1049,1.00271927,PQ,-0.2333157156356986,0.0,0.0,0.0,0.0
1050,1.0,PV,-0.14476671947723682,0.8915000000000001,-0.015904920899999998,0.0,0.0
1051,1.0,PV,-0.11894675066675549,0.8915000000000001,-0.00904831724,0.0,0.0
1052,1.0,PV,-0.1596651389987845,0.8915000000000001,-0.039729280400000004,0.0,0.0
1053,1.01036757,PQ,-0.30332669958756353,0.0,0.0,0.0,0.0
1054,1.00354944,PQ,-0.3925227214137979,0.0,0.0,0.1499,0.0425
1055,1.0004648,PQ,-0.3206242668503269,0.0,0.0,0.0398,0.0113
1056,1.02004746,PQ,-0.3840162641469286,0.0,0.0,0.0,0.0
1057,1.02004746,PQ,-0.3840162641469286,0.0,0.0,0.0,0.0
1058,1.01038386,PQ,-0.1929409442361437,0.0,0.0,0.1346,0.0381
1059,1.01038386,PQ,-0.1929409442361437,0.0,0.0,0.0,0.0
1060,1.01038386,PQ,-0.1929409442361437,0.0,0.0,0.0,0.0
1061,1.00758911,PQ,-0.304983099078181,0.0,0.0,0.0,0.0
1062,1.00758911,PQ,-0.304983099078181,0.0,0.0,0.0,0.0
1063,1.00758911,PQ,-0.304983099078181,0.0,0.0,0.0,0.0
1064,0.970762248,PQ,-0.42279279740785947,0.0,0.0,1.2376,0.3507
1065,1.00471204,PQ,-0.26432504328773493,0.0,0.0,0.0,0.0
1066,1.0,PV,-0.13288090649437118,1.0688,-0.0119736029,0.0,0.0
1067,0.999373738,PQ,-0.27758397800257795,0.0,0.0,1.0155,0.2877
1068,0.986958206,PQ,-0.2886346226640304,0.0,0.0,0.594,0.16829999999999998
1069,1.01356202,PQ,-0.14881093725329642,0.0,0.0,0.0,0.0
1070,1.04,PV,-0.0698830701672497,1.2037999999999998,0.388597641,0.0,0.0
1071,0.985314388,PQ,-0.3757154642618095,0.0,0.0,0.9146,0.2591
1072,1.01,PV,-0.2121083979182992,1.9159,0.32846023199999996,0.0,0.0
1073,1.01,PV,-0.09967060381290523,1.9159,0.37216382000000003,0.0,0.0
1074,1.01,PV,-0.13564027448523516,1.9159,0.34094073100000005,0.0,0.0
1075,1.01,PV,-0.1840128171673218,1.9159,0.361356321,0.0,0.0
1076,0.985314388,PQ,-0.3757154642618095,0.0,0.0,0.0,0.0
1077,0.985314388,PQ,-0.3757154642618095,0.0,0.0,0.0,0.0
1078,1.01,PV,-0.1930752560487309,0.9522999999999999,0.19075153099999997,0.0,0.0
1079,1.01,PV,-0.6751999227302042,0.9522999999999999,-3.98003952,0.0,0.0
1080,1.01,PV,-0.1830612095539277,0.9522999999999999,0.157654544,0.0,0.0
1081,1.01142966,PQ,-0.3271568789062383,0.0,0.0,0.0,0.0
1082,1.0,PV,-0.09589072592590396,1.125,-0.470880756,0.0,0.0
1083,1.00752344,PQ,-0.16907546528428155,0.0,0.0,0.3995,0.11320000000000001
1084,1.04,PV,-0.29535737786997107,0.8662000000000001,0.60928118,0.0,0.0
1085,1.00701681,PQ,-0.2684902959822289,0.0,0.0,0.213,0.0603
1086,1.01270764,PQ,-0.3077109614325856,0.0,0.0,0.3967,0.1124
1087,1.0112005,PQ,-0.2798989216358994,0.0,0.0,0.0091,0.0026
1088,1.0,PV,-0.20794341225918075,0.5625,0.0482144379,0.0,0.0
1089,0.979985891,PQ,-0.37584968182661715,0.0,0.0,0.406,0.115
1090,1.02,PV,-0.28306380570835704,1.4137000000000002,0.4094939148000001,0.0,0.0
1091,1.02422392,PQ,-0.5438899891899482,0.0,0.0,0.1162,0.0329
2001,1.00177435,PQ,-1.0441185896832157,0.0,0.0,0.4836,0.13699999999999998
2002,1.01409744,PQ,-1.0719370470555616,0.0,0.0,0.0,0.0
2003,1.01263756,PQ,-1.1111438144490846,0.0,0.0,0.0,0.0
2004,1.01409744,PQ,-1.0719370470555616,0.0,0.0,0.0,0.0
2005,1.01409744,PQ,-1.0719370470555616,0.0,0.0,0.0,0.0
2006,1.01409744,PQ,-1.0719370470555616,0.0,0.0,0.0,0.0
2007,1.0027093,PQ,-1.0400863590029916,0.0,0.0,0.09539999999999998,0.027000000000000003
2008,1.00420306,PQ,-0.5738675759266436,0.0,0.0,0.0806,0.022799999999999997
2009,1.0217087,PQ,-0.7891113705796879,0.0,0.0,0.3914,0.1109
2010,1.02298001,PQ,-0.6373493372520046,0.0,0.0,0.5681,0.1609
2011,1.02784106,PQ,-0.5599621293689598,0.0,0.0,0.0,0.0
2012,1.01031052,PQ,-0.519771834035353,0.0,0.0,0.0,0.0
2013,1.0,PV,-0.5171464870852228,1.5045,-0.9508466099999999,0.0,0.0
2014,1.00565228,PQ,-0.5846422735613802,0.0,0.0,0.25429999999999997,0.07200000000000001
2015,1.00867842,PQ,-1.1020678649739357,0.0,0.0,0.046900000000000004,0.013300000000000001
2016,1.01065708,PQ,-1.2172790804613307,0.0,0.0,0.6927,0.1963
2017,1.02750947,PQ,-0.5640371188705284,0.0,0.0,0.0,0.0
2018,1.02012685,PQ,-0.5502208027870855,0.0,0.0,0.0,0.0
2019,1.02750947,PQ,-0.5640371188705284,0.0,0.0,0.0,0.0
2020,0.996865662,PQ,-0.7832193537004531,0.0,0.0,0.4797,0.1359
2021,1.01340904,PQ,-0.9869279182612166,0.0,0.0,0.0,0.0
2022,1.00990772,PQ,-1.020655088332422,0.0,0.0,0.11560000000000001,0.032799999999999996
2023,1.02,PV,-0.959644943611346,0.831,0.195500042,0.0,0.0
2024,1.02,PV,-0.9480268854287532,1.662,0.28480368,0.0,0.0
2025,0.995671989,PQ,-0.7699780433203968,0.0,0.0,0.3962,0.11230000000000001
2026,1.01422703,PQ,-0.5419863481028224,0.0,0.0,0.1857,0.0526
2027,1.00235603,PQ,-1.0516303419214714,0.0,0.0,0.0355,0.0101
2028,0.99640214,PQ,-0.8242572070987673,0.0,0.0,0.1424,0.0403
2029,1.01379707,PQ,-0.5739619057367261,0.0,0.0,0.032,0.0091
2030,0.990299602,PQ,-1.1147584925590615,0.0,0.0,0.4715,0.1336
2031,1.02534906,PQ,-0.5213217963668668,0.0,0.0,0.057699999999999994,0.0163
2032,1.00453546,PQ,-1.0295466507534143,0.0,0.0,0.0335,0.0095
2033,0.99373199,PQ,-1.1410573301489393,0.0,0.0,0.13570000000000002,0.0385
2034,1.008916,PQ,-1.2056554389704608,0.0,0.0,0.053399999999999996,0.0151
2035,1.02199553,PQ,-0.5375939512781569,0.0,0.0,0.046799999999999994,0.013300000000000001
2036,1.00063532,PQ,-0.7762792613694078,0.0,0.0,0.41590000000000005,0.11779999999999999
2037,1.01941216,PQ,-1.1077996327025694,0.0,0.0,0.035,0.009899999999999999
2038,1.00965248,PQ,-1.1193482704141642,0.0,0.0,0.026000000000000002,0.0074
2039,0.993466449,PQ,-1.0566767275794933,0.0,0.0,0.0556,0.0158
2040,1.00731926,PQ,-1.0323503232292086,0.0,0.0,0.159,0.0451
2041,1.01099334,PQ,-0.48014342825580386,0.0,0.0,0.0,0.0
2042,1.01,PV,-0.4342219376615579,0.597,-0.015502620900000002,0.0,0.0
2043,1.00948585,PQ,-1.2109621893556366,0.0,0.0,0.0424,0.012
2044,1.01679857,PQ,-1.1382057745651164,0.0,0.0,0.27399999999999997,0.0776
2045,0.996167207,PQ,-0.792570538107983,0.0,0.0,0.2261,0.064
2046,1.00869562,PQ,-1.1989651399072903,0.0,0.0,0.2213,0.06269999999999999
2047,1.01132569,PQ,-1.1267703074928797,0.0,0.0,0.1496,0.0424
2048,1.02593907,PQ,-0.5564440238171543,0.0,0.0,0.0642,0.0182
2049,1.01910603,PQ,-0.715139937849075,0.0,0.0,0.1157,0.032799999999999996
2050,0.99543505,PQ,-1.1007840444094,0.0,0.0,0.0366,0.0104
2051,0.991602339,PQ,-0.9435955101659029,0.0,0.0,0.17850000000000002,0.0506
2052,1.00303917,PQ,-0.5578801505388653,0.0,0.0,0.2484,0.0704
2053,0.99297979,PQ,-1.0338788040482887,0.0,0.0,0.2913,0.0825
2054,0.99941822,PQ,-0.7527403635402571,0.0,0.0,0.0,0.0
2055,0.998984114,PQ,-0.7671582876355455,0.0,0.0,0.4962,0.1406
2056,0.99941822,PQ,-0.7527403635402571,0.0,0.0,0.0,0.0
2057,0.99,PV,-0.6759364080413145,5.735700000000001,-0.593578038,0.0,0.0
2058,1.00546551,PQ,-0.47079282678824425,0.0,0.0,0.0,0.0
2059,1.0,PV,-0.4102123053345224,0.6,-0.0678536469,0.0,0.0
2060,0.998410849,PQ,-1.0784229261754215,0.0,0.0,0.038,0.0108
2061,1.02220077,PQ,-0.6541030110506274,0.0,0.0,0.0,0.0
2062,1.02,PV,-0.6140170741889851,1.0154999999999998,-0.07389689509999998,0.0,0.0
2063,1.01002963,PQ,-1.1879174064550302,0.0,0.0,0.6562,0.1859
2064,1.00352462,PQ,-1.0492633263899167,0.0,0.0,0.1005,0.0285
2065,1.02340003,PQ,-1.1420150499053738,0.0,0.0,0.7836,0.222
2066,1.02253257,PQ,-0.4875858525255119,0.0,0.0,0.0711,0.0202
2067,0.993876298,PQ,-0.7686199781948104,0.0,0.0,0.5397,0.15289999999999998
2068,1.00016277,PQ,-0.7331354884596497,0.0,0.0,0.0576,0.0163
2069,1.02485711,PQ,-1.2027892278569092,0.0,0.0,0.2192,0.0621
2070,1.00223779,PQ,-0.7258296187506178,0.0,0.0,0.0,0.0
2071,1.0,PV,-0.6616773071626283,1.125,-0.028510613000000004,0.0,0.0
2072,1.01948259,PQ,-1.170314926681285,0.0,0.0,0.0971,0.0275
2073,1.02450841,PQ,-0.44465624373227813,0.0,0.0,0.0,0.0
2074,1.01252304,PQ,-0.41237295488065057,0.0,0.0,0.0,0.0
2075,1.01252304,PQ,-0.41237295488065057,0.0,0.0,0.0,0.0
2076,1.04,PV,-0.42973321262481634,0.22499999999999998,0.20908304999999996,0.0,0.0
2077,1.01986301,PQ,-1.0656108289103448,0.0,0.0,0.0,0.0
2078,1.02,PV,-1.007676231838634,0.8437999999999999,0.0027652419299999996,0.0,0.0
2079,1.0250013,PQ,-0.6067367456282268,0.0,0.0,0.044800000000000006,0.0127
2080,0.996719169,PQ,-1.001723749772793,0.0,0.0,0.1693,0.048
2081,1.00429434,PQ,-1.1333420533212792,0.0,0.0,0.0446,0.0126
2082,1.00460772,PQ,-0.7822848991829475,0.0,0.0,0.5903,0.1673
2083,1.02,PV,-0.7548551213990332,0.19940000000000005,0.106827827,0.0,0.0
2084,1.00460772,PQ,-0.7822848991829475,0.0,0.0,0.0,0.0
2085,1.00460772,PQ,-0.7822848991829475,0.0,0.0,0.0,0.0
2086,0.994620085,PQ,-1.0359484224566207,0.0,0.0,0.0219,0.0062
2087,1.02448461,PQ,-0.4846588812647106,0.0,0.0,0.079,0.022400000000000003
2088,1.00119024,PQ,-0.7278968652564962,0.0,0.0,0.0,0.0
2089,1.0,PV,-0.6650613853905147,0.5069999999999999,-0.00425491859,0.0,0.0
2090,1.00293333,PQ,-1.0624394434864233,0.0,0.0,0.0242,0.0069
2091,1.02123248,PQ,-0.5960049900744062,0.0,0.0,0.1705,0.0483
2092,1.00911741,PQ,-1.1586407352192893,0.0,0.0,0.24109999999999998,0.0683
2093,1.01535206,PQ,-0.5342639468411559,0.0,0.0,0.0,0.0
2094,1.01535206,PQ,-0.5342639468411559,0.0,0.0,0.0,0.0
2095,1.01535206,PQ,-0.5342639468411559,0.0,0.0,0.0,0.0
2096,1.01983306,PQ,-0.4881707210845014,0.0,0.0,0.0,0.0
2097,1.01919522,PQ,-0.47862308067103787,0.0,0.0,0.0,0.0
2098,1.02512543,PQ,-0.5335706130504718,0.0,0.0,0.0,0.0
2099,1.02,PV,-0.4856650723051315,0.075,0.00434404576,0.0,0.0
2100,1.02,PV,-0.44236063136575177,1.125,0.00986613038,0.0,0.0
2101,1.01462243,PQ,-1.0912206907966808,0.0,0.0,0.0,0.0
2102,1.01478062,PQ,-1.1162834443223941,0.0,0.0,0.0,0.0
2103,1.01462243,PQ,-1.0912206907966808,0.0,0.0,0.0,0.0
2104,1.01462243,PQ,-1.0912206907966808,0.0,0.0,0.0,0.0
2105,1.01462243,PQ,-1.0912206907966808,0.0,0.0,0.0,0.0
2106,0.992458304,PQ,-1.1522624399398516,0.0,0.0,0.14400000000000002,0.0408
2107,1.0094567,PQ,-1.1313688050129254,0.0,0.0,0.7415,0.2101
2108,1.00311319,PQ,-0.7639150051184174,0.0,0.0,0.021400000000000002,0.0060999999999999995
2109,1.00837253,PQ,-0.8088782139602096,0.0,0.0,0.3381,0.0958
...
